#    Name: 54537
#    Modification time : Tue Aug  8 21:37:24 2017

@<TRIPOS>MOLECULE
54537
   20     0     6     0     0
SMALL
NO_CHARGES


@<TRIPOS>ATOM
      1 N           7.5520  -31.9080  -30.7050 N.am      1 SEL1        0.0000 
      2 CA         10.1800  -32.7900  -30.8620 C.3       2 GLL5        0.0000 
      3 CA          8.9230  -35.2040  -35.0040 C.3       2 GLL5        0.0000 
      4 CA          4.7270  -31.9750  -31.9940 C.3       2 GLL5        0.0000 
      5 N           6.5580  -30.0930  -28.0900 N.am      3 SEP1        0.0000 
      6 CA          7.5540  -35.8690  -29.6730 C.3       4 GLP5        0.0000 
      7 CA          8.1470  -33.1480  -27.3460 C.3       4 GLP5        0.0000 
      8 CA         11.2030  -29.8660  -32.2060 C.3       4 GLP5        0.0000 
      9 CA         11.5440  -37.2180  -37.9770 C.3       4 GLP5        0.0000 
     10 CA         10.7230  -32.4400  -36.8000 C.3       4 GLP5        0.0000 
     11 CA          5.5560  -35.5710  -30.9530 C.3       4 GLP5        0.0000 
     12 CA          4.8920  -29.1290  -34.1670 C.3       4 GLP5        0.0000 
     13 N           7.0550  -31.0005  -29.3975 N.am      5 SEC1        0.0000 
     14 CA          8.8670  -34.3295  -30.2675 C.3       6 GLC5        0.0000 
     15 CA          9.1635  -32.9690  -29.1040 C.3       6 GLC5        0.0000 
     16 CA         10.6915  -31.3280  -31.5340 C.3       6 GLC5        0.0000 
     17 CA         10.2335  -36.2110  -36.4905 C.3       6 GLC5        0.0000 
     18 CA          9.8230  -33.8220  -35.9020 C.3       6 GLC5        0.0000 
     19 CA          5.1415  -33.7730  -31.4735 C.3       6 GLC5        0.0000 
     20 CA          4.8095  -30.5520  -33.0805 C.3       6 GLC5        0.0000 
@<TRIPOS>BOND
@<TRIPOS>SUBSTRUCTURE
     1 SEL1        1 GROUP        1 Z    SEL  0     ROOT SEL Z 0
     2 GLL5        2 GROUP        1 Z    GLL  0     **** GLL Z 4
     3 SEP1        5 GROUP        1 Z    SEP  0     **** SEP Z 7
     4 GLP5        6 GROUP        1 Z    GLP  0     **** GLP Z 11
     5 SEC1       13 GROUP        1 Z    SEC  0     **** SEC Z 14
     6 GLC5       14 GROUP        1 Z    GLC  0     **** GLC Z 18
@<TRIPOS>SET

