@<TRIPOS>MOLECULE
3rfm_CFF_1_ligand
   24    25     1     0     0
SMALL
USER_CHARGES


@<TRIPOS>ATOM
     1 N1           9.1740   -33.1560   -31.8810 N.pl3        1 CFF330   0.0000
     2 C2           9.5110   -33.9730   -32.9480 C.2          1 CFF330   0.0000
     3 C10         10.1800   -32.7900   -30.8620 C.3          1 CFF330   0.0000
     4 C6           7.8800   -32.6980   -31.7480 C.2          1 CFF330   0.0000
     5 N3           8.5600   -34.3290   -33.8820 N.pl3        1 CFF330   0.0000
     6 O11         10.7810   -34.4320   -33.0790 O.2          1 CFF330   0.0000
     7 C12          8.9230   -35.2040   -35.0040 C.3          1 CFF330   0.0000
     8 C4           7.2870   -33.8640   -33.7350 C.2          1 CFF330   0.0000
     9 C5           6.9250   -33.0680   -32.6990 C.2          1 CFF330   0.0000
    10 N9           6.2400   -34.1120   -34.5500 N.2          1 CFF330   0.0000
    11 O13          7.5520   -31.9080   -30.7050 O.2          1 CFF330   0.0000
    12 N7           5.6170   -32.7750   -32.8280 N.pl3        1 CFF330   0.0000
    13 C8           5.2350   -33.4220   -33.9540 C.2          1 CFF330   0.0000
    14 C14          4.7270   -31.9750   -31.9940 C.3          1 CFF330   0.0000
    15 H1           9.7581   -32.1994   -30.1741 H            1 CFF330   0.0000
    16 H2          10.5262   -33.6189   -30.4226 H            1 CFF330   0.0000
    17 H3          10.9364   -32.3040   -31.2998 H            1 CFF330   0.0000
    18 H4           8.1199   -35.3588   -35.5794 H            1 CFF330   0.0000
    19 H5           9.6427   -34.7700   -35.5459 H            1 CFF330   0.0000
    20 H6           9.2536   -36.0792   -34.6508 H            1 CFF330   0.0000
    21 H7           4.3018   -33.3941   -34.3122 H            1 CFF330   0.0000
    22 H8           3.8102   -31.9709   -32.3933 H            1 CFF330   0.0000
    23 H9           4.6886   -32.3678   -31.0752 H            1 CFF330   0.0000
    24 H10          5.0720   -31.0379   -31.9418 H            1 CFF330   0.0000
@<TRIPOS>BOND
     1    1    2       1
     2    1    3       1
     3    1    4       1
     4    2    5       1
     5    2    6       2
     6    4    9       1
     7    4   11       2
     8    5    7       1
     9    5    8       1
    10    8    9       2
    11    8   10       1
    12    9   12       1
    13   10   13       2
    14   12   13       1
    15   12   14       1
    16    3   15       1
    17    3   16       1
    18    3   17       1
    19    7   18       1
    20    7   19       1
    21    7   20       1
    22   13   21       1
    23   14   22       1
    24   14   23       1
    25   14   24       1
@<TRIPOS>SUBSTRUCTURE
     1 CFF330      1 GROUP             4 A     CFF     0 **** CFF A 330
