3rfm_xtal_lig.pdb
 OpenBabel10252414563D

 14 15  0  0  0  0  0  0  0  0999 V2000
    9.1740  -33.1560  -31.8810 N   0  0  0  0  0  0  0  0  0  0  0  0
    9.5110  -33.9730  -32.9480 C   0  0  0  0  0  0  0  0  0  0  0  0
   10.1800  -32.7900  -30.8620 C   0  0  0  0  0  0  0  0  0  0  0  0
    7.8800  -32.6980  -31.7480 C   0  0  0  0  0  0  0  0  0  0  0  0
    8.5600  -34.3290  -33.8820 N   0  0  0  0  0  0  0  0  0  0  0  0
   10.7810  -34.4320  -33.0790 O   0  0  0  0  0  0  0  0  0  0  0  0
    8.9230  -35.2040  -35.0040 C   0  0  0  0  0  0  0  0  0  0  0  0
    7.2870  -33.8640  -33.7350 C   0  0  0  0  0  0  0  0  0  0  0  0
    6.9250  -33.0680  -32.6990 C   0  0  0  0  0  0  0  0  0  0  0  0
    6.2400  -34.1120  -34.5500 N   0  0  0  0  0  0  0  0  0  0  0  0
    7.5520  -31.9080  -30.7050 O   0  0  0  0  0  0  0  0  0  0  0  0
    5.6170  -32.7750  -32.8280 N   0  0  0  0  0  0  0  0  0  0  0  0
    5.2350  -33.4220  -33.9540 C   0  0  0  0  0  0  0  0  0  0  0  0
    4.7270  -31.9750  -31.9940 C   0  0  0  0  0  0  0  0  0  0  0  0
  1  4  1  0  0  0  0
  1  3  1  0  0  0  0
  2  1  1  0  0  0  0
  4 11  2  0  0  0  0
  5  8  1  0  0  0  0
  5  2  1  0  0  0  0
  6  2  2  0  0  0  0
  7  5  1  0  0  0  0
  8  9  2  0  0  0  0
  9  4  1  0  0  0  0
 10 13  2  0  0  0  0
 10  8  1  0  0  0  0
 12  9  1  0  0  0  0
 12 14  1  0  0  0  0
 13 12  1  0  0  0  0
M  END
>  <REMARK>
 Selection '(not protein) a...) and (not ion)'

>  <ANISOU>
    1  N1  CFF A 330        0      0      0      0      0      0       N  
    2  C2  CFF A 330        0      0      0      0      0      0       C  
    3  C10 CFF A 330        0      0      0      0      0      0       C  
    4  C6  CFF A 330        0      0      0      0      0      0       C  
    5  N3  CFF A 330        0      0      0      0      0      0       N  
    6  O11 CFF A 330        0      0      0      0      0      0       O  
    7  C12 CFF A 330        0      0      0      0      0      0       C  
    8  C4  CFF A 330        0      0      0      0      0      0       C  
    9  C5  CFF A 330        0      0      0      0      0      0       C  
   10  N9  CFF A 330        0      0      0      0      0      0       N  
   11  O13 CFF A 330        0      0      0      0      0      0       O  
   12  N7  CFF A 330        0      0      0      0      0      0       N  
   13  C8  CFF A 330        0      0      0      0      0      0       C  
   14  C14 CFF A 330        0      0      0      0      0      0       C  

$$$$
